Geom Title=geo
Program Version=4.10
Viewing Rectangle= 0 , 1 , 1 , 0 

River Reach=river1          ,reach1          
Reach XY= 2 
             0.30.89072164948454             0.30.28659793814433
Rch Text X Y=0.3,0.7396907
Reverse River Text= 0 

Type RM Length L Ch R = 1 ,24159.70,0,0,0
Node Last Edited Time=Nov/05/2014 20:23:17
#Sta/Elev= 28 
       0 132.793   9.643 132.498  11.752 132.726   19.33 132.793  19.821 132.791
   21.09 132.748  23.542 131.582  25.656  131.66  30.182  128.84  40.444 128.569
  51.938 128.407  54.867 126.012  63.454 126.361  68.149 130.266  70.887 130.403
  74.199 130.569  78.411 127.422  90.649 127.221  94.071 129.171 100.207 129.486
 107.197 127.354 109.696 126.654 117.319 126.646 120.397 127.272 121.804 128.191
 136.203 128.172 140.924 129.539 142.467 137.658
#Mann= 3 , 0 , 0 
       0    .036       0            .036       0            .036       0
Bank Sta=,
XS Rating Curve= 0 ,0
Exp/Cntr=.3,.1

Type RM Length L Ch R = 1 ,23493.82,665.88,665.88,665.88
Node Last Edited Time=Nov/05/2014 20:23:17
#Sta/Elev= 33 
       0 129.803   2.212 129.771   2.419 128.129  11.381 128.146  11.878 128.448
  13.443 128.514  14.006 128.553  21.291 128.375   21.83 128.311   22.95   128.3
  26.691 126.209  27.969 126.186  33.097  122.92  48.064 123.321  49.713 123.939
  64.298 123.719  73.088 125.547  76.453 125.372  94.846 124.414 112.882 124.292
 130.655 123.715 134.892 122.075 138.892 121.075 174.688  121.61 178.708 122.067
 187.259 123.711 201.464 123.682 203.726 122.904 208.814  122.52 210.081 122.042
 219.074 122.575 225.758 128.268 230.599 128.122
#Mann= 3 , 0 , 0 
       0    .036       0            .036       0            .036       0
Bank Sta=,
XS Rating Curve= 0 ,0
Exp/Cntr=.3,.1

Type RM Length L Ch R = 1 ,22881.93,611.89,611.89,611.89
Node Last Edited Time=Nov/05/2014 20:23:17
#Sta/Elev= 29 
       0 127.532    .929 127.667   4.105 127.631   7.555 127.271  11.136 123.429
  15.146 122.985  17.378 119.671  24.326 120.965  36.123 120.874  38.334 122.012
  55.919  122.03  73.417 122.124   83.58 122.119  92.913 122.115 110.505 122.111
 121.143 122.206 134.194 121.331 139.141 120.632 141.141 119.332 171.248 120.966
 177.576  121.32 188.814 121.578  198.96 121.664 210.806 120.589 215.359 120.318
 221.074 120.559 223.251 121.427 230.721 125.164 234.493 129.814
#Mann= 3 , 0 , 0 
       0    .036       0            .036       0            .036       0
Bank Sta=,
XS Rating Curve= 0 ,0
Exp/Cntr=.3,.1

Type RM Length L Ch R = 1 ,22265.32,616.61,616.61,616.61
Node Last Edited Time=Nov/05/2014 20:23:17
#Sta/Elev= 36 
       0 123.744   5.031 123.774    8.35 123.817  13.368 123.766  14.328 123.756
  14.337 123.749  19.829 118.905  24.931 116.225  29.415 116.319  31.258 117.346
  44.163 117.485  45.793  118.01  53.704 117.637   59.21 117.844  60.226 118.131
  68.665 117.564  72.672 119.255  79.567 119.032    82.4 120.717  86.932 118.686
  91.408 118.276  91.428 118.277  105.31 117.173 112.264 118.101 131.252 118.168
 146.392 117.533 148.392 115.883 164.496 116.648 165.944 117.491 178.382 118.177
 187.722  118.73 195.684 118.901 200.366 119.873  201.87 119.182 216.957 123.318
 224.328  123.71
#Mann= 3 , 0 , 0 
       0    .036       0            .036       0            .036       0
Bank Sta=,
XS Rating Curve= 0 ,0
Exp/Cntr=.3,.1

Type RM Length L Ch R = 1 ,22185.69,79.63,79.63,79.63
Node Last Edited Time=Nov/05/2014 20:23:17
#Sta/Elev= 4 
       0     121       6 117.585     215 117.585     221     121
#Mann= 3 , 0 , 0 
       0    .036       0            .036       0            .036       0
Bank Sta=,
XS Rating Curve= 0 ,0
Exp/Cntr=.3,.1

Type RM Length L Ch R = 1 ,22179.69,6,6,6
Node Last Edited Time=Nov/05/2014 20:23:17
#Sta/Elev= 4 
       0     121       6  117.58     215  117.58     221     121
#Mann= 3 , 0 , 0 
       0    .036       0            .036       0            .036       0
Bank Sta=,
XS Rating Curve= 0 ,0
Exp/Cntr=.3,.1

Type RM Length L Ch R = 1 ,22169.69,10,10,10
Node Last Edited Time=Nov/05/2014 20:23:17
#Sta/Elev= 4 
       0     121      10  109.35     210  109.35     221     121
#Mann= 3 , 0 , 0 
       0    .036       0            .036       0            .036       0
Bank Sta=,
XS Rating Curve= 0 ,0
Exp/Cntr=.3,.1

Type RM Length L Ch R = 1 ,21836.03,333.66,333.66,333.66
Node Last Edited Time=Nov/05/2014 20:23:17
#Sta/Elev= 23 
       0 121.387    4.29 121.387   6.061 121.031   15.38 112.769  32.811 111.557
  43.113 108.985  58.608 108.756  80.161 107.348  83.196 106.527 105.418 106.867
 117.121 107.485 129.047 107.979 142.972 107.949 157.404 108.079 172.273 111.333
 175.581 115.293 182.464  115.26 191.673  113.38 201.904 113.088 213.979 117.557
 217.352 121.034  217.86 121.012 221.359 121.034
#Mann= 3 , 0 , 0 
       0    .036       0            .036       0            .036       0
Bank Sta=,
XS Rating Curve= 0 ,0
Exp/Cntr=.3,.1

Type RM Length L Ch R = 1 ,21595.20,240.83,240.83,240.83
Node Last Edited Time=Nov/05/2014 20:23:17
#Sta/Elev= 25 
       0 119.178   3.809 119.178   6.029 118.991  18.256 110.309  32.576 109.967
  48.857 110.463  68.741 111.693  82.739 111.218  85.727 107.924  93.826 106.505
 103.249 106.432  105.97 105.282 114.024 105.578 133.967 105.448 146.871 106.231
 157.593 105.662 187.262 105.585 193.397 106.142 201.831  107.41 208.088 110.571
 209.567 112.898 214.129 115.719 217.531 118.994 219.309 118.938 222.514 118.994
#Mann= 3 , 0 , 0 
       0    .036       0            .036       0            .036       0
Bank Sta=,
XS Rating Curve= 0 ,0
Exp/Cntr=.3,.1

Type RM Length L Ch R = 1 ,21310.77,284.43,284.43,284.43
Node Last Edited Time=Nov/05/2014 20:23:17
#Sta/Elev= 23 
       0  117.54   3.991  117.54   7.831 117.213   16.89 109.037  35.318 110.361
  46.187 108.406   69.38 108.511  83.702 108.953  93.004 107.138 115.183 106.556
 136.372 105.307 147.598 104.666  160.16 104.612 163.359     105 174.855 105.023
 187.427 104.897 198.865 104.801 204.225 105.442 209.738 111.567 211.055 111.544
 216.823 117.236  218.02 117.203 221.131 117.236
#Mann= 3 , 0 , 0 
       0    .036       0            .036       0            .036       0
Bank Sta=,
XS Rating Curve= 0 ,0
Exp/Cntr=.3,.1

Type RM Length L Ch R = 1 ,20652.30,658.46,658.46,658.46
Node Last Edited Time=Nov/05/2014 20:23:17
#Sta/Elev= 25 
       0 112.719    4.24 112.719   6.689 112.306  14.785 105.224  24.869 104.546
  25.577 103.049  34.677 101.809  54.945 101.941  71.274 102.747  88.121 103.329
  106.37 103.584 124.631 103.645 142.987 103.581 161.508  103.58 172.261 103.161
 180.441 103.001 181.608 102.418 183.444 101.736 209.314   101.4 212.653 102.444
 218.034  107.71 220.806 107.966 225.618 112.801 226.065 112.807 229.454 112.852
#Mann= 3 , 0 , 0 
       0    .036       0            .036       0            .036       0
Bank Sta=,
XS Rating Curve= 0 ,0
Exp/Cntr=.3,.1

Type RM Length L Ch R = 1 ,20459.95,192.35,192.35,192.35
Node Last Edited Time=Nov/05/2014 20:23:17
#Sta/Elev= 38 
       0 111.737   3.486 111.882   6.802 111.228  17.711 103.235  21.874 101.396
  38.706 102.001  60.185 101.569  85.143 102.054 106.571 102.426 122.695 102.836
 142.715 102.975 162.975 102.879 164.629 101.175 166.178 100.415  183.37 100.468
  192.68 101.203 207.484 101.773 224.175 101.954 239.849 101.581 246.038 101.561
 258.355 102.122 276.149  101.48 291.196 103.489 308.953 103.174 323.837 102.838
 343.832 103.149 346.727 101.976 367.679 102.526 382.713 102.241 384.239 101.431
 389.092 101.099 393.587 100.944 399.597 101.012 401.036 101.538 412.102 110.607
 418.683 110.548 420.051 110.495 420.067 110.494
#Mann= 3 , 0 , 0 
       0    .036       0            .036       0            .036       0
Bank Sta=,
XS Rating Curve= 0 ,0
Exp/Cntr=.3,.1

Type RM Length L Ch R = 1 ,20039.43,420.52,420.52,420.52
Node Last Edited Time=Nov/05/2014 20:23:17
#Sta/Elev= 23 
       0 108.517     4.2 108.594  15.329 103.633  24.524 102.009  38.439  101.57
  41.588  99.981  55.011   99.13  67.841   99.67  80.107  99.978  93.142 100.302
 105.611 100.102 119.576 100.049 132.052 100.214 159.858   99.21 161.779  98.581
 163.306  98.344 234.432  96.898 259.916  97.227 274.025  97.348 281.868 101.522
 293.121 107.981  294.19 108.006 302.416 108.195
#Mann= 3 , 0 , 0 
       0    .036       0            .036       0            .036       0
Bank Sta=,
XS Rating Curve= 0 ,0
Exp/Cntr=.3,.1

Type RM Length L Ch R = 1 ,19889.10,150.33,150.33,150.33
Node Last Edited Time=Nov/05/2014 20:23:17
#Sta/Elev= 32 
       0 107.536    3.93 107.536  12.641 105.166  19.287 100.877  43.305 100.506
  59.522 101.333  75.793 101.827   79.47  98.504  84.902  98.363  87.687  99.218
  97.684  99.369 109.202  98.947 124.336  98.772 139.156  98.927 152.364  98.815
 157.612  97.443 172.862  98.097 189.093  98.149  200.87  98.225 212.373  97.899
   227.2  97.745 231.395  97.059 233.463  96.648 241.375  97.059 266.864  95.019
 269.858  97.019 276.728 101.503 281.153 105.357 283.672 105.596 284.883 106.787
  285.76 106.799 293.374   106.9
#Mann= 3 , 0 , 0 
       0    .036       0            .036       0            .036       0
Bank Sta=,
XS Rating Curve= 0 ,0
Exp/Cntr=.3,.1

Type RM Length L Ch R = 1 ,19594.57,294.53,294.53,294.53
Node Last Edited Time=Nov/05/2014 20:23:17
#Sta/Elev= 26 
       0  105.25    4.15  105.25   7.031 104.746  19.392  97.486  40.843  97.526
   63.28  98.115  75.881   97.97  82.402  95.844 103.182  96.508 124.379  96.833
 144.667  97.024 165.494  96.838 187.239  96.824 202.919  97.096 213.679  95.416
  233.25  96.087  245.52  95.621 256.414  94.982 264.412   94.98 273.218  94.027
 279.216  94.327 280.918  95.197 285.459  97.291 294.972 104.885  295.66 104.903
 302.696 105.085
#Mann= 3 , 0 , 0 
       0    .036       0            .036       0            .036       0
Bank Sta=,
XS Rating Curve= 0 ,0
Exp/Cntr=.3,.1

Type RM Length L Ch R = 1 ,19480.56,114.02,114.02,114.02
Node Last Edited Time=Nov/05/2014 20:23:17
#Sta/Elev= 27 
       0 104.466   3.971 104.466   7.501  103.44  17.735   96.82  34.671   96.93
   53.71   97.09  73.441   97.03  75.026  95.759  88.752  96.125 109.651  96.558
 113.931  95.722 131.387  95.597 148.418  95.836 167.022  96.309  188.33  96.135
 191.437  95.287 202.122   95.13 216.322  95.169 232.358  96.068 256.089  94.824
 260.787  94.421 277.442  92.854 283.441  94.854 289.231  98.412 295.161  104.02
  296.14 104.017 304.009 103.992
#Mann= 3 , 0 , 0 
       0    .036       0            .036       0            .036       0
Bank Sta=,
XS Rating Curve= 0 ,0
Exp/Cntr=.3,.1

Type RM Length L Ch R = 1 ,19224.06,256.49,256.49,256.49
Node Last Edited Time=Nov/05/2014 20:23:17
#Sta/Elev= 28 
       0 102.517   3.834 102.517    6.09 102.071  16.926  95.036  30.992  95.373
  45.713  94.961  61.162  94.765  76.451  94.223   80.46  93.583  93.266  93.636
  98.172  94.527 112.722  94.792 129.627  94.888  145.97  94.753 174.964  94.593
 176.896  93.395 178.499  92.783 185.248   91.64 193.248   92.64 209.213  93.317
 228.441  94.024 246.462  94.215 258.807  93.881 273.078  93.362 273.729  93.799
 279.685  99.754 280.571  99.751 287.962  99.754
#Mann= 3 , 0 , 0 
       0    .036       0            .036       0            .036       0
Bank Sta=,
XS Rating Curve= 0 ,0
Exp/Cntr=.3,.1

Type RM Length L Ch R = 1 ,19067.86,156.21,156.21,156.21
Node Last Edited Time=Nov/05/2014 20:23:17
#Sta/Elev= 27 
       0 101.534   4.014 101.534   6.041  101.15  16.303  92.234  31.274  92.443
  41.415  92.211  44.068  93.552  68.997  93.893  84.792  93.915  99.226  93.976
 113.982  94.006 128.192  93.931 143.127  93.867 160.661  93.543 169.965  92.753
 184.057   92.24 186.351  91.783 194.398  90.826 204.399  91.326 207.055  92.186
 222.484  93.395 235.224  92.826 237.614  91.867 251.374  91.941 257.778  98.628
 259.509  98.637 265.701  98.671
#Mann= 3 , 0 , 0 
       0    .036       0            .036       0            .036       0
Bank Sta=,
XS Rating Curve= 0 ,0
Exp/Cntr=.3,.1

Type RM Length L Ch R = 1 ,18945.79,122.07,122.07,122.07
Node Last Edited Time=Nov/05/2014 20:23:17
#Sta/Elev= 24 
       0 100.619   3.903 100.619   6.059  100.22  18.481  90.851  26.833  90.954
  28.771  91.742  45.115  92.936  58.716  93.072  74.144  92.986  95.131  93.088
 115.502  93.053 135.452  92.956 156.017  92.722 177.248  92.193 195.284  92.264
 213.049  91.692 216.138  91.256 228.115   89.46 238.115   90.96 240.008  91.672
 243.414  93.591 248.915  97.727 249.397  97.721 256.514  97.727
#Mann= 3 , 0 , 0 
       0    .036       0            .036       0            .036       0
Bank Sta=,
XS Rating Curve= 0 ,0
Exp/Cntr=.3,.1

Type RM Length L Ch R = 1 ,18776.09,169.71,169.71,169.71
Node Last Edited Time=Nov/05/2014 20:23:17
#Sta/Elev= 22 
       0  99.381   3.812  99.381   5.919  99.001    18.8   89.91  42.145   90.27
  57.925  91.493  78.414  92.104  98.146  92.253  116.83  92.329 136.777  92.467
 156.623  92.348 175.076  91.867 177.084  91.207 179.133   90.57 189.131   90.27
 226.011  90.368  236.01  90.768 241.088  91.314 245.434  92.993  249.36   96.63
 250.068  96.624 257.277   96.63
#Mann= 3 , 0 , 0 
       0    .036       0            .036       0            .036       0
Bank Sta=,
XS Rating Curve= 0 ,0
Exp/Cntr=.3,.1

Type RM Length L Ch R = 1 ,18469.51,306.58,306.58,306.58
Node Last Edited Time=Nov/05/2014 20:23:17
#Sta/Elev= 25 
       0   96.98   3.924   96.98    6.06  96.506  14.549  89.347  29.795  89.218
  31.025  89.692  62.517   89.98  82.437   89.87 101.082  89.621 120.565  89.871
 141.279  90.423 142.273  89.842 152.801  89.682 171.843  90.137 191.504  90.386
 194.758  89.542 198.204  89.183 213.204  88.493 233.232  87.899 241.232  88.199
 243.234  89.074 245.694  89.787 251.012  94.542 252.712  94.512 258.357  94.542
#Mann= 3 , 0 , 0 
       0    .036       0            .036       0            .036       0
Bank Sta=,
XS Rating Curve= 0 ,0
Exp/Cntr=.3,.1

Type RM Length L Ch R = 1 ,18333.49,136.01,136.01,136.01
Node Last Edited Time=Nov/05/2014 20:23:17
#Sta/Elev= 24 
       0  95.892   4.034  95.892   7.267  94.921  15.244    88.5  17.795  87.945
  32.025  88.559  34.486  89.043  55.382  89.394  74.308  89.342  93.469  89.184
 111.448  89.135 132.046   88.51 140.794  88.517 142.765  89.228  163.85  89.533
 194.449  89.575  199.45   88.88 206.622  88.338 233.329   87.39 243.329   87.89
 245.321  88.868 252.024  93.682 252.524  93.668 259.967  93.682
#Mann= 3 , 0 , 0 
       0    .036       0            .036       0            .036       0
Bank Sta=,
XS Rating Curve= 0 ,0
Exp/Cntr=.3,.1

Type RM Length L Ch R = 1 ,18155.45,178.04,178.04,178.04
Node Last Edited Time=Nov/05/2014 20:23:17
#Sta/Elev= 30 
       0  94.857   3.942  94.857   7.099  94.355  14.974  87.942  26.535  88.026
   30.63  88.278  33.754  87.664  45.439  87.615  49.754  88.343   72.67  88.761
  92.021  88.533 101.332  87.644 116.842   87.64 130.963  88.157 150.552  88.321
 169.666  88.641  173.12  88.106 180.612  87.826 193.304  87.068 201.303  87.468
 207.721  88.097 207.731  88.098 221.403  88.606 235.928  88.094 239.754  87.138
 245.795  86.979 247.039   88.04 252.427  92.749 253.174  92.746 260.173  92.718
#Mann= 3 , 0 , 0 
       0    .036       0            .036       0            .036       0
Bank Sta=,
XS Rating Curve= 0 ,0
Exp/Cntr=.3,.1

Type RM Length L Ch R = 1 ,17815.74,339.71,339.71,339.71
Node Last Edited Time=Nov/05/2014 20:23:17
#Sta/Elev= 28 
       0  93.148   3.943  93.148    5.89   92.73  18.828  88.642  18.962  86.894
  20.787  86.128  33.348  86.205  54.567   86.96  72.895  87.227  94.223  87.145
 113.521  87.043 132.241  86.688 138.157  86.082 140.936  85.517 146.935  85.317
 156.912  85.542 166.912  85.542   176.1   86.07 196.144  85.876 214.428  85.621
   232.3   85.12 238.877  84.175 246.818  85.235 247.536  86.541 250.952  87.117
 255.449  90.928 256.354  90.934 263.004  90.981
#Mann= 3 , 0 , 0 
       0    .036       0            .036       0            .036       0
Bank Sta=,
XS Rating Curve= 0 ,0
Exp/Cntr=.3,.1

Type RM Length L Ch R = 1 ,17681.20,134.54,134.54,134.54
Node Last Edited Time=Nov/05/2014 20:23:17
#Sta/Elev= 29 
       0  92.194   3.583  92.194   6.129  91.846  13.172  87.789  33.199  87.238
  34.784  85.598  41.011   85.36  42.552  84.423  57.307  84.432  57.398  84.429
   58.27  84.709  77.492  84.901  96.984  85.097 115.929  85.507 134.892  85.444
 154.773  85.532  174.46   85.81 193.937  85.975 217.037  85.417 219.692  84.553
  221.82  84.109 241.267  83.002 251.268  83.502 253.316  84.515  256.15  86.828
 260.621  86.765 260.681  89.771 262.323  89.785 273.259  89.881
#Mann= 3 , 0 , 0 
       0    .036       0            .036       0            .036       0
Bank Sta=,
XS Rating Curve= 0 ,0
Exp/Cntr=.3,.1

Type RM Length L Ch R = 1 ,17375.88,305.32,305.32,305.32
Node Last Edited Time=Nov/05/2014 20:23:17
#Sta/Elev= 30 
       0  90.277   3.824  90.277   8.331  89.715   8.582  87.039   9.492  86.633
  14.031  82.545  31.834  82.493  34.955  83.007  54.193  83.798  71.099  84.191
  89.143  83.188 101.597  83.156 114.462  83.166 117.027  82.466 125.407  82.537
 130.959   84.26 149.981   84.82 161.478  83.728 182.269  84.347  200.75  84.469
 219.347  84.311  221.17  83.444 222.995  83.048 247.183  82.737 258.183  82.737
 260.893  83.476 263.916  85.165 266.673  87.595  267.71  87.602 274.727  87.647
#Mann= 3 , 0 , 0 
       0    .036       0            .036       0            .036       0
Bank Sta=,
XS Rating Curve= 0 ,0
Exp/Cntr=.3,.1

Type RM Length L Ch R = 1 ,16793.57,582.3,582.3,582.3
Node Last Edited Time=Nov/05/2014 20:23:17
#Sta/Elev= 27 
       0  85.941   3.952  85.941   6.918  85.613  14.304  80.791  36.915  80.805
   40.41  81.333  58.216  81.327   76.91  81.246  95.331  81.208 114.155   81.01
 132.685  80.606 153.359  80.245 154.666  79.692 159.653  79.835 173.648  80.574
 193.366  80.346 225.046  79.697 231.999  79.732 238.223  80.063 247.159  79.778
 253.448  79.072 263.855  79.154 264.479  79.819 267.617  81.166  270.34   83.47
  273.01  83.527  278.54  83.709
#Mann= 3 , 0 , 0 
       0    .036       0            .036       0            .036       0
Bank Sta=,
XS Rating Curve= 0 ,0
Exp/Cntr=.3,.1

Type RM Length L Ch R = 1 ,16651.45,142.13,142.13,142.13
Node Last Edited Time=Nov/05/2014 20:23:17
#Sta/Elev= 28 
       0   85.03   3.912   85.03   6.239  84.508  11.951  80.802  30.098  80.103
  44.399  80.137  54.152  79.919  72.417  80.485   90.73  80.344 108.563  80.228
 125.229  80.029 142.828  79.802 144.325  79.139 160.993   78.86 170.512  79.032
 174.159  79.498 192.557  79.854 211.724  80.094 221.451  79.992 222.592  79.657
 233.795  79.473  239.95  78.886 265.172  78.161 265.738  79.465 267.581  80.379
 271.095  82.747 272.783  82.739  279.67  82.981
#Mann= 3 , 0 , 0 
       0    .036       0            .036       0            .036       0
Bank Sta=,
XS Rating Curve= 0 ,0
Exp/Cntr=.3,.1

Type RM Length L Ch R = 1 ,16359.32,292.13,292.13,292.13
Node Last Edited Time=Nov/05/2014 20:23:17
#Sta/Elev= 34 
       0   83.25   3.992   83.25    6.05  82.829  11.603  80.349  34.017  79.296
   36.97  78.889  45.811  78.831  47.409  79.215  70.093  78.753  71.189  78.263
  85.559  78.311  94.927  78.563 100.825  78.017  102.94  77.256 117.951  77.363
 128.205   77.73 138.991  78.059 151.406  77.946 161.674  77.764 167.136  77.454
 178.166  77.942 192.062  78.263 206.431  78.546  220.87    78.6 231.722  78.609
 241.883   78.32 248.506  77.702  252.94  77.764 261.097  77.972 268.938  77.945
 269.362  78.366 275.714  80.442 274.092   80.73 285.189    81.5
#Mann= 3 , 0 , 0 
       0    .036       0            .036       0            .036       0
Bank Sta=,
XS Rating Curve= 0 ,0
Exp/Cntr=.3,.1

Type RM Length L Ch R = 1 ,16194.66,164.66,164.66,164.66
Node Last Edited Time=Nov/05/2014 20:23:17
#Sta/Elev= 4 
       0      81      10    76.5     275    76.5     285      81
#Mann= 3 , 0 , 0 
       0    .036       0            .036       0            .036       0
Bank Sta=,
XS Rating Curve= 0 ,0
Exp/Cntr=.3,.1

Type RM Length L Ch R = 1 ,16189.01,5.66,5.66,5.66
Node Last Edited Time=Nov/05/2014 20:23:17
#Sta/Elev= 4 
       0      81       5    77.5     280    77.5     285      81
#Mann= 3 , 0 , 0 
       0    .036       0            .036       0            .036       0
Bank Sta=,
XS Rating Curve= 0 ,0
Exp/Cntr=.3,.1

Type RM Length L Ch R = 1 ,16179.01,10,10,10
Node Last Edited Time=Nov/05/2014 20:23:17
#Sta/Elev= 4 
       0      81      10      76     275      76     285      81
#Mann= 3 , 0 , 0 
       0    .036       0            .036       0            .036       0
Bank Sta=,
XS Rating Curve= 0 ,0
Exp/Cntr=.3,.1

Type RM Length L Ch R = 1 ,16170.94,8.06,8.06,8.06
Node Last Edited Time=Nov/05/2014 20:23:17
#Sta/Elev= 34 
       0  82.196   3.882  82.417    5.72  82.174   8.181  80.063  11.781  80.054
  15.945  77.201  23.454  77.372  28.247    74.6   37.14  75.027  45.902  73.242
  46.687  72.708  55.088  72.276  65.278  72.155  71.621  73.041   78.86  72.811
  83.147  73.257 101.614   73.94 116.656  74.091 129.889  73.785 142.804  73.279
 147.491  72.889 161.684  72.852 179.077  72.896 214.228  72.337 233.201   72.73
 245.652  73.366 262.387  73.877  265.63  75.897 269.956  76.879 273.425  79.184
 277.873  79.561 278.111  79.883 279.521  79.866 285.537  79.794
#Mann= 3 , 0 , 0 
       0    .036       0            .036       0            .036       0
Bank Sta=,
XS Rating Curve= 0 ,0
Exp/Cntr=.3,.1

Type RM Length L Ch R = 1 ,15996.80,174.14,174.14,174.14
Node Last Edited Time=Nov/05/2014 20:23:17
#Sta/Elev= 32 
       0  81.427   3.952  81.427    6.01  81.015  14.648  75.998  30.173   75.71
  31.335  76.435  36.867  71.997   38.24  71.576  41.364  71.834  45.151  72.019
  49.523  72.376  55.406  71.997  65.199  72.041   74.89  72.173  86.443  71.828
 116.602  71.652 126.118  72.316 128.087  74.351 140.865  74.662 160.444  74.921
 180.267  74.881 197.374  74.796 214.922  74.348 231.041  74.482 245.532  73.858
 262.673  73.914 275.238  73.325 280.988  73.853 284.265   74.97 288.399  78.801
 289.692   78.82 297.109  80.442
#Mann= 3 , 0 , 0 
       0    .036       0            .036       0            .036       0
Bank Sta=,
XS Rating Curve= 0 ,0
Exp/Cntr=.3,.1

Type RM Length L Ch R = 1 ,15696.77,300.03,300.03,300.03
Node Last Edited Time=Nov/05/2014 20:23:17
#Sta/Elev= 30 
       0  79.436   4.853  79.436   7.519  79.074  16.913  73.689  25.174   73.43
  37.925  73.113  44.289  71.736  45.003  69.622  61.665  71.176  68.414  71.351
    87.4  71.529 110.594  71.043 120.649   69.54 142.133  68.702 157.323  67.651
 187.245  68.626 207.572  69.513 234.933  69.122 238.046   69.71  247.12  69.897
 252.346  69.959 270.002  68.641 277.607  71.686 278.889  72.858 282.069  74.035
 286.421  77.385  287.79  77.395 293.809  77.437 294.876  76.981  302.68  77.437
#Mann= 3 , 0 , 0 
       0    .036       0            .036       0            .036       0
Bank Sta=,
XS Rating Curve= 0 ,0
Exp/Cntr=.3,.1

Type RM Length L Ch R = 1 ,15535.22,161.55,161.55,161.55
Node Last Edited Time=Nov/05/2014 20:23:17
#Sta/Elev= 35 
       0  78.454   4.452  78.454   6.351  78.335  14.085  73.672  25.039  73.077
  28.572  74.625  33.823   74.22  41.574   72.59  53.526  72.376  65.088  73.394
  67.102  74.376  79.723  74.154  88.805  73.831 103.482  74.303 114.196  73.793
 126.891   73.38 139.796  73.808 161.919  73.601 184.362  72.771  194.81  72.707
 197.611  71.656 205.584  70.608 225.733  69.588 241.702  68.468 260.639  68.718
 270.555  70.554 270.993  71.612  271.62  72.865 274.421  73.897 280.631  73.721
 284.737  76.699 286.021  76.678 293.078  76.563 293.831      76   300.5  76.699
#Mann= 3 , 0 , 0 
       0    .036       0            .036       0            .036       0
Bank Sta=,
XS Rating Curve= 0 ,0
Exp/Cntr=.3,.1

Type RM Length L Ch R = 1 ,15195.45,339.77,339.77,339.77
Node Last Edited Time=Nov/05/2014 20:23:17
#Sta/Elev= 24 
       0  76.546   4.434  76.546   6.402  76.419  12.044  73.787  25.898  73.336
  43.518  72.456  58.136  72.624  70.757  71.412   86.15  69.741 134.101  70.689
 169.463  70.497 199.617  69.892 224.391  70.162 237.515   70.61 238.263  71.893
 238.556  72.277  251.61  72.476 264.673  72.359 278.073  72.466 282.476  75.595
 283.382  75.597 290.261  75.614 291.629   75.21 295.547  75.914
#Mann= 3 , 0 , 0 
       0    .036       0            .036       0            .036       0
Bank Sta=,
XS Rating Curve= 0 ,0
Exp/Cntr=.3,.1

Type RM Length L Ch R = 1 ,15151.45,44,44,44
Node Last Edited Time=Nov/05/2014 20:23:17
#Sta/Elev= 8 
       0      76      10   69.55      30   69.55      31   69.55     250   69.55
     251   69.55     280   69.55     295      76
#Mann= 3 , 0 , 0 
       0    .036       0            .036       0            .036       0
Bank Sta=,
XS Rating Curve= 0 ,0
Exp/Cntr=.3,.1

Type RM Length L Ch R = 1 ,15145.45,6,6,6
Node Last Edited Time=Nov/05/2014 20:23:17
#Sta/Elev= 4 
       0      76       5   71.55     290   71.55     295      76
#Mann= 3 , 0 , 0 
       0    .036       0            .036       0            .036       0
Bank Sta=,
XS Rating Curve= 0 ,0
Exp/Cntr=.3,.1

Type RM Length L Ch R = 1 ,15135.25,10.2,10.2,10.2
Node Last Edited Time=Nov/05/2014 20:23:17
#Sta/Elev= 4 
       0      76      10   67.55     280   67.55     295      76
#Mann= 3 , 0 , 0 
       0    .036       0            .036       0            .036       0
Bank Sta=,
XS Rating Curve= 0 ,0
Exp/Cntr=.3,.1

Type RM Length L Ch R = 1 ,15034.94,100.32,100.32,100.32
Node Last Edited Time=Nov/05/2014 20:23:17
#Sta/Elev= 40 
       0  75.884   4.734  75.884   7.091  75.564  14.485  71.071   26.22   70.73
  41.462   70.44  50.886  68.157  64.346  68.423  81.119  67.116  81.251  66.162
  81.901  64.677   97.05  64.324 109.627  65.705 116.681   65.88 123.617  65.547
 136.997  65.099 152.857  63.786  167.07  66.134   167.4  66.614  179.94  67.515
 190.532  67.586 200.781  67.208 203.282  66.146  205.45  64.349 210.158  64.462
 217.571  66.024 221.795  66.383  229.34  66.088 237.199  64.275 242.379  64.839
 244.289  66.086 246.026   67.42 253.671  66.874 263.122  68.066 277.309  69.334
 283.815  75.138 284.773  75.114 292.657  74.915 293.806  74.366 295.637  75.138
#Mann= 3 , 0 , 0 
       0    .036       0            .036       0            .036       0
Bank Sta=,
XS Rating Curve= 0 ,0
Exp/Cntr=.3,.1

Type RM Length L Ch R = 1 ,14667.01,367.92,367.92,367.92
Node Last Edited Time=Nov/05/2014 20:23:17
#Sta/Elev= 31 
       0  73.697   4.314  73.697   5.602  73.538  13.911   68.02  18.935  67.887
  26.812  67.528  35.537  66.923  43.765  67.005  52.459  66.668  56.068  66.256
  64.218  66.583  71.209  67.743  75.194  66.888  76.561  65.689  78.424   63.57
 108.893  62.903 132.134  63.396 152.329    64.7 168.912  65.695 190.325  66.174
 207.825  66.409 212.424  68.585 231.125   68.68 237.799    67.8 260.199  66.791
 273.508  67.054 280.574   72.57 281.477  72.586 287.488  72.696 289.458  72.043
 291.541  72.696
#Mann= 3 , 0 , 0 
       0    .036       0            .036       0            .036       0
Bank Sta=,
XS Rating Curve= 0 ,0
Exp/Cntr=.3,.1

Type RM Length L Ch R = 1 ,14475.96,191.05,191.05,191.05
Node Last Edited Time=Nov/05/2014 20:23:17
#Sta/Elev= 28 
       0  73.157   4.364  73.157   7.172  72.933  13.154  67.864  18.238  67.354
  26.009  67.364  28.842  68.116  30.659  67.367  42.392  67.267  51.279  67.389
  58.096  67.854  60.879  66.041  61.647  64.302  79.257   63.27 143.189  65.195
 163.993  65.659 186.696  66.019 190.505  67.873 207.066  67.715 221.797  67.596
 242.514  66.601  260.55  66.213 274.669   66.71 280.547  71.477 280.765   71.48
 288.408  71.602 289.768  71.031 291.783  71.602
#Mann= 3 , 0 , 0 
       0    .036       0            .036       0            .036       0
Bank Sta=,
XS Rating Curve= 0 ,0
Exp/Cntr=.3,.1

Type RM Length L Ch R = 1 ,14282.83,193.13,193.13,193.13
Node Last Edited Time=Nov/05/2014 20:23:17
#Sta/Elev= 31 
       0   72.24   4.365   72.24   5.133  72.063  13.309  67.851  17.873  67.334
  25.124  67.252  29.128  68.278  32.521  67.567  41.899  68.134  48.999   68.13
  54.597  66.055  55.946  65.416  70.125   63.35  95.472  64.026  127.38   64.83
 154.683  65.345 175.678  65.143 184.972  66.044  188.22  67.835 207.156  67.613
 226.995  66.866 246.424  66.751 262.566  66.357  267.15  65.991 272.289  65.932
 277.032  66.809 281.902  70.634 282.977  70.633 289.613  70.626 291.194  70.188
 293.014  70.289
#Mann= 3 , 0 , 0 
       0    .036       0            .036       0            .036       0
Bank Sta=,
XS Rating Curve= 0 ,0
Exp/Cntr=.3,.1

Type RM Length L Ch R = 1 ,14146.13,136.7,136.7,136.7
Node Last Edited Time=Nov/05/2014 20:23:17
#Sta/Elev= 26 
       0   71.01   4.627  71.555   7.029  70.846  11.436  67.826  17.626   67.55
  25.507  67.516  46.426  67.321  47.566  68.292  64.385  67.876  64.695  65.884
   72.37  64.564 141.319  64.228 166.166  64.114 195.597  64.265 223.849  64.632
 232.318  65.099 237.607  66.026  239.93  67.072 252.048  67.231 268.461  66.578
 280.789  66.843 284.298  69.655 285.225  69.651 292.133  69.622 293.217  69.145
 295.432  69.326
#Mann= 3 , 0 , 0 
       0    .036       0            .036       0            .036       0
Bank Sta=,
XS Rating Curve= 0 ,0
Exp/Cntr=.3,.1

Type RM Length L Ch R = 1 ,14126.40,19.72,19.72,19.72
Node Last Edited Time=Nov/05/2014 20:23:17
#Sta/Elev= 8 
       0      71       5    64.7      30    64.7      31    64.7     255    64.7
     256    64.7     288    64.7     293      71
#Mann= 3 , 0 , 0 
       0    .036       0            .036       0            .036       0
Bank Sta=,
XS Rating Curve= 0 ,0
Exp/Cntr=.3,.1

Type RM Length L Ch R = 1 ,14120.32,6.08,6.08,6.08
Node Last Edited Time=Nov/05/2014 20:23:17
#Sta/Elev= 4 
       0      71       5    65.7     288    65.7     293      71
#Mann= 3 , 0 , 0 
       0    .036       0            .036       0            .036       0
Bank Sta=,
XS Rating Curve= 0 ,0
Exp/Cntr=.3,.1

Type RM Length L Ch R = 1 ,14110.47,9.85,9.85,9.85
Node Last Edited Time=Nov/05/2014 20:23:17
#Sta/Elev= 4 
       0      71      10      61     285      61     293      71
#Mann= 3 , 0 , 0 
       0    .036       0            .036       0            .036       0